# This file was generated by ISODISTORT, version 6.12.2
# Harold T. Stokes, Branton J. Campbell, David Tanner, Dorian M. Hatch
# Brigham Young University, Provo, Utah, USA
#
# Space Group: 123 P4/mmm     D4h-1
# Default space-group preferences: monoclinic axes a(b)c, monoclinic cell choice 1, orthorhombic axes abc, origin choice 2, hexagonal axes, SSG standard setting
# Lattice parameters: a= 3.92080, b= 3.92080, c= 3.28100, alpha= 90.00000, beta= 90.00000, gamma= 90.00000
# Pr1 1d (1/2,1/2,1/2)
# O1 2f (0,1/2,0)
# Ni1 1a (0,0,0)
# Include strain, displacive ALL distortions
# k point: S, k11 (a,a,1/2), a=1/4
# IR: S1, k11t1
# P3 (a,0;a,0) 139 I4/mmm, basis={(2,-2,0),(2,2,0),(0,0,2)}, origin=(0,0,0), s=8, i=8, k-active= (1/4,1/4,1/2),(1/4,-1/4,1/2)
# Order parameter values:
#  P4/mmm[1/4,1/4,1/2]S1(a,0;a,0) 139 I4/mmm s=8 i=8
#     [Pr1:d:dsp]A2u(a):  0.00000
#     [O1:f:dsp]B3u(a):  0.00000
#     [O1:f:dsp]B2u(a):  0.00000
#     [Ni1:a:dsp]Eu(a):  0.00000
#  P4/mmm[0,0,0]GM1+(a) 123 P4/mmm s=1 i=1
#     strain_1(a):  0.00000
#     strain_2(a):  0.00000
#  P4/mmm[1/2,1/2,0]M1+(a) 123 P4/mmm s=2 i=2
#     [O1:f:dsp]B2u(a):  0.00000
#  P4/mmm[0,1/2,0]X1+(a;a) 123 P4/mmm s=4 i=4
#     [Pr1:d:dsp]Eu(a):  0.00000
#     [O1:f:dsp]B2u(a):  0.00000

data_isodistort-output

_cell_length_a     11.08970
_cell_length_b     11.08970
_cell_length_c     6.56200
_cell_angle_alpha  90.00000
_cell_angle_beta   90.00000
_cell_angle_gamma  90.00000
_cell_volume       807.00382

_symmetry_space_group_name_H-M "I 4/m 2/m 2/m"
_symmetry_Int_Tables_number 139
_space_group.reference_setting '139:-I 4 2'
_space_group.transform_Pp_abc a,b,c;0,0,0

loop_
_space_group_symop_id
_space_group_symop_operation_xyz
1 x,y,z
2 x,-y,-z
3 -x,y,-z
4 -x,-y,z
5 -y,-x,-z
6 -y,x,z
7 y,-x,z
8 y,x,-z
9 -x,-y,-z
10 -x,y,z
11 x,-y,z
12 x,y,-z
13 y,x,z
14 y,-x,-z
15 -y,x,-z
16 -y,-x,z
17 x+1/2,y+1/2,z+1/2
18 x+1/2,-y+1/2,-z+1/2
19 -x+1/2,y+1/2,-z+1/2
20 -x+1/2,-y+1/2,z+1/2
21 -y+1/2,-x+1/2,-z+1/2
22 -y+1/2,x+1/2,z+1/2
23 y+1/2,-x+1/2,z+1/2
24 y+1/2,x+1/2,-z+1/2
25 -x+1/2,-y+1/2,-z+1/2
26 -x+1/2,y+1/2,z+1/2
27 x+1/2,-y+1/2,z+1/2
28 x+1/2,y+1/2,-z+1/2
29 y+1/2,x+1/2,z+1/2
30 y+1/2,-x+1/2,-z+1/2
31 -y+1/2,x+1/2,-z+1/2
32 -y+1/2,-x+1/2,z+1/2

loop_
_atom_type_symbol
Pr    
O     
Ni    

loop_
_atom_site_label
_atom_site_type_symbol
_atom_site_symmetry_multiplicity
_atom_site_Wyckoff_symbol
_atom_site_fract_x
_atom_site_fract_y
_atom_site_fract_z
_atom_site_occupancy
_atom_site_fract_symmform
Pr1_1 Pr  16 n  0.00000  0.75000  0.75000  1.00000 0,Dy,Dz 
O1_1  O    8 h  0.87500  0.87500  0.00000  1.00000 Dx,Dx,0 
O1_2  O    8 h  0.37500  0.37500  0.00000  1.00000 Dx,Dx,0 
O1_3  O   16 l  0.37500  0.12500  0.00000  1.00000 Dx,Dy,0 
Ni1_1 Ni   2 a  0.00000  0.00000  0.00000  1.00000 0,0,0   
Ni1_2 Ni   2 b  0.00000  0.00000  0.50000  1.00000 0,0,0   
Ni1_3 Ni   4 c  0.00000  0.50000  0.00000  1.00000 0,0,0   
Ni1_4 Ni   8 h  0.75000  0.75000  0.00000  1.00000 Dx,Dx,0 

_iso_displacivemode_number    7

loop_
_iso_displacivemode_ID
_iso_displacivemode_label
_iso_displacivemode_value
   1 P4/mmm[1/4,1/4,1/2]S1(a,0;a,0)[Pr1:d:dsp]A2u(a)  0.00000
   2 P4/mmm[0,1/2,0]X1+(a;a)[Pr1:d:dsp]Eu(a)  0.00000
   3 P4/mmm[1/4,1/4,1/2]S1(a,0;a,0)[O1:f:dsp]B3u(a)  0.00000
   4 P4/mmm[1/4,1/4,1/2]S1(a,0;a,0)[O1:f:dsp]B2u(a)  0.00000
   5 P4/mmm[1/2,1/2,0]M1+(a)[O1:f:dsp]B2u(a)  0.00000
   6 P4/mmm[0,1/2,0]X1+(a;a)[O1:f:dsp]B2u(a)  0.00000
   7 P4/mmm[1/4,1/4,1/2]S1(a,0;a,0)[Ni1:a:dsp]Eu(a)  0.00000

loop_
_iso_displacivemodenorm_ID
_iso_displacivemodenorm_value
   1  0.05388
   2  0.03188
   3  0.02254
   4  0.02254
   5  0.01594
   6  0.01594
   7  0.03188

loop_
_iso_deltacoordinate_ID
_iso_deltacoordinate_label
_iso_deltacoordinate_value
   1 Pr1_1_dy   0.00000
   2 Pr1_1_dz   0.00000
   3 O1_1_dx   0.00000
   4 O1_2_dx   0.00000
   5 O1_3_dx   0.00000
   6 O1_3_dy   0.00000
   7 Ni1_4_dx   0.00000

loop_
_iso_coordinate_label
_iso_coordinate_formula
Pr1_1_x                 "0 + Pr1_1_dx"
Pr1_1_y                 "3/4 + Pr1_1_dx"
Pr1_1_z                 "3/4"
O1_1_x                  "7/8 + O1_1_dx"
O1_1_y                  "7/8 + O1_1_dx"
O1_1_z                  "0"
O1_2_x                  "3/8 + O1_2_dx"
O1_2_y                  "3/8 + O1_2_dx"
O1_2_z                  "0"
O1_3_x                  "3/8 + O1_3_dx"
O1_3_y                  "1/8 + O1_3_dx"
O1_3_z                  "0"
Ni1_1_x                 "0 + Ni1_1_dx"
Ni1_1_y                 "0 + Ni1_1_dx"
Ni1_1_z                 "0"
Ni1_2_x                 "0 + Ni1_2_dx"
Ni1_2_y                 "0 + Ni1_2_dx"
Ni1_2_z                 "1/2"
Ni1_3_x                 "0 + Ni1_3_dx"
Ni1_3_y                 "1/2 + Ni1_3_dx"
Ni1_3_z                 "0"
Ni1_4_x                 "3/4 + Ni1_4_dx"
Ni1_4_y                 "3/4 + Ni1_4_dx"
Ni1_4_z                 "0"

# matrix conversion: deltacoords(lattice units) = matrix.(modeamplitudes*modenormfactors)
# Square matrix with _iso_displacivemode_number rows and columns

loop_
_iso_displacivemodematrix_row
_iso_displacivemodematrix_col
_iso_displacivemodematrix_value
    1    2  -1.00000
    2    1   1.00000
    3    4  -1.00000
    3    5  -1.00000
    3    6  -1.00000
    4    4   1.00000
    4    5  -1.00000
    4    6  -1.00000
    5    3   1.00000
    5    5  -1.00000
    5    6   1.00000
    6    3   1.00000
    6    5   1.00000
    6    6  -1.00000
    7    7  -1.00000

_iso_magneticmode_number    0


_iso_rotationalmode_number    0


_iso_occupancymode_number    0

_iso_strainmode_number    2

loop_
_iso_strainmode_ID
_iso_strainmode_label
_iso_strainmode_value
   1 P4/mmm[0,0,0]GM1+(a)strain_1(a)  0.00000
   2 P4/mmm[0,0,0]GM1+(a)strain_2(a)  0.00000

loop_
_iso_strainmodenorm_ID
_iso_strainmodenorm_value
   1  0.70711
   2  1.00000

loop_
_iso_strain_ID
_iso_strain_label
_iso_strain_value
   1 E_1   0.00000
   2 E_2   0.00000
   3 E_3   0.00000
   4 E_4   0.00000
   5 E_5   0.00000
   6 E_6   0.00000

# matrix conversion: strains(parent) = matrix * modeamplitudes
# Rectangular matrix with 6 rows and _iso_strainmode_number columns

loop_
_iso_strainmodematrix_row
_iso_strainmodematrix_col
_iso_strainmodematrix_value
    1    1   1.00000
    2    1   1.00000
    3    2   1.00000

_iso_parentcell_length_a     3.92080
_iso_parentcell_length_b     3.92080
_iso_parentcell_length_c     3.28100
_iso_parentcell_angle_alpha  90.00000
_iso_parentcell_angle_beta   90.00000
_iso_parentcell_angle_gamma  90.00000
_iso_parentcell_volume       50.43774
_iso_parent-to-child.transform_Pp_abc 2a-2b,2a+2b,2c;-2,0,-1

# end of structure file
# end of cif
