# This file was generated by ISODISTORT, version 6.12.2
# Harold T. Stokes, Branton J. Campbell, David Tanner, Dorian M. Hatch
# Brigham Young University, Provo, Utah, USA
#
# Space Group: 123 P4/mmm     D4h-1
# Default space-group preferences: monoclinic axes a(b)c, monoclinic cell choice 1, orthorhombic axes abc, origin choice 2, hexagonal axes, SSG standard setting
# Lattice parameters: a= 3.92080, b= 3.92080, c= 3.28100, alpha= 90.00000, beta= 90.00000, gamma= 90.00000
# Pr1 1d (1/2,1/2,1/2)
# O1 2f (0,1/2,0)
# Ni1 1a (0,0,0)
# Include strain, displacive ALL distortions
# k point: S, k11 (a,a,1/2), a=1/4
# IR: S1, k11t1
# C4 (a,0;b,0)  71 Immm, basis={(0,0,2),(-2,-2,0),(2,-2,0)}, origin=(0,0,0), s=8, i=16, k-active= (1/4,1/4,1/2),(1/4,-1/4,1/2)
# Order parameter values:
#  P4/mmm[1/4,1/4,1/2]S1(a,0;b,0) 71 Immm s=8 i=16
#     [Pr1:d:dsp]A2u(a):  0.00000
#     [Pr1:d:dsp]A2u(b):  0.00000
#     [O1:f:dsp]B3u(a):  0.00000
#     [O1:f:dsp]B3u(b):  0.00000
#     [O1:f:dsp]B2u(a):  0.00000
#     [O1:f:dsp]B2u(b):  0.00000
#     [Ni1:a:dsp]Eu(a):  0.00000
#     [Ni1:a:dsp]Eu(b):  0.00000
#  P4/mmm[0,0,0]GM1+(a) 123 P4/mmm s=1 i=1
#     strain_1(a):  0.00000
#     strain_2(a):  0.00000
#  P4/mmm[0,0,0]GM4+(a) 65 Cmmm s=1 i=2
#     strain(a):  0.00000
#  P4/mmm[1/2,1/2,0]M1+(a) 123 P4/mmm s=2 i=2
#     [O1:f:dsp]B2u(a):  0.00000
#  P4/mmm[1/2,1/2,0]M4+(a) 123 P4/mmm s=2 i=2
#     [O1:f:dsp]B3u(a):  0.00000
#  P4/mmm[0,1/2,0]X1+(a;a) 123 P4/mmm s=4 i=4
#     [Pr1:d:dsp]Eu(a):  0.00000
#     [O1:f:dsp]B2u(a):  0.00000
#  P4/mmm[0,1/2,0]X2+(a;a) 127 P4/mbm s=4 i=4
#     [Pr1:d:dsp]Eu(a):  0.00000
#     [O1:f:dsp]B3u(a):  0.00000

data_isodistort-output

_cell_length_a     6.56200
_cell_length_b     11.08970
_cell_length_c     11.08970
_cell_angle_alpha  90.00000
_cell_angle_beta   90.00000
_cell_angle_gamma  90.00000
_cell_volume       807.00382

_symmetry_space_group_name_H-M "I 2/m 2/m 2/m"
_symmetry_Int_Tables_number 71
_space_group.reference_setting '071:-I 2 2'
_space_group.transform_Pp_abc a,b,c;0,0,0

loop_
_space_group_symop_id
_space_group_symop_operation_xyz
1 x,y,z
2 x,-y,-z
3 -x,y,-z
4 -x,-y,z
5 -x,-y,-z
6 -x,y,z
7 x,-y,z
8 x,y,-z
9 x+1/2,y+1/2,z+1/2
10 x+1/2,-y+1/2,-z+1/2
11 -x+1/2,y+1/2,-z+1/2
12 -x+1/2,-y+1/2,z+1/2
13 -x+1/2,-y+1/2,-z+1/2
14 -x+1/2,y+1/2,z+1/2
15 x+1/2,-y+1/2,z+1/2
16 x+1/2,y+1/2,-z+1/2

loop_
_atom_type_symbol
Pr    
O     
Ni    

loop_
_atom_site_label
_atom_site_type_symbol
_atom_site_symmetry_multiplicity
_atom_site_Wyckoff_symbol
_atom_site_fract_x
_atom_site_fract_y
_atom_site_fract_z
_atom_site_occupancy
_atom_site_fract_symmform
Pr1_1 Pr   8 n  0.75000  0.25000  0.00000  1.00000 Dx,Dy,0 
Pr1_2 Pr   8 m  0.75000  0.00000  0.75000  1.00000 Dx,0,Dz 
O1_1  O    8 l  0.00000  0.87500  0.87500  1.00000 0,Dy,Dz 
O1_2  O    8 l  0.00000  0.87500  0.37500  1.00000 0,Dy,Dz 
O1_3  O    8 l  0.00000  0.37500  0.87500  1.00000 0,Dy,Dz 
O1_4  O    8 l  0.00000  0.37500  0.37500  1.00000 0,Dy,Dz 
Ni1_1 Ni   2 a  0.00000  0.00000  0.00000  1.00000 0,0,0   
Ni1_2 Ni   2 c  0.50000  0.50000  0.00000  1.00000 0,0,0   
Ni1_3 Ni   8 l  0.00000  0.75000  0.75000  1.00000 0,Dy,Dz 
Ni1_4 Ni   2 d  0.50000  0.00000  0.50000  1.00000 0,0,0   
Ni1_5 Ni   2 b  0.00000  0.50000  0.50000  1.00000 0,0,0   

_iso_displacivemode_number   14

loop_
_iso_displacivemode_ID
_iso_displacivemode_label
_iso_displacivemode_value
   1 P4/mmm[1/4,1/4,1/2]S1(a,0;b,0)[Pr1:d:dsp]A2u(a)  0.00000
   2 P4/mmm[1/4,1/4,1/2]S1(a,0;b,0)[Pr1:d:dsp]A2u(b)  0.00000
   3 P4/mmm[0,1/2,0]X1+(a;a)[Pr1:d:dsp]Eu(a)  0.00000
   4 P4/mmm[0,1/2,0]X2+(a;a)[Pr1:d:dsp]Eu(a)  0.00000
   5 P4/mmm[1/4,1/4,1/2]S1(a,0;b,0)[O1:f:dsp]B3u(a)  0.00000
   6 P4/mmm[1/4,1/4,1/2]S1(a,0;b,0)[O1:f:dsp]B3u(b)  0.00000
   7 P4/mmm[1/4,1/4,1/2]S1(a,0;b,0)[O1:f:dsp]B2u(a)  0.00000
   8 P4/mmm[1/4,1/4,1/2]S1(a,0;b,0)[O1:f:dsp]B2u(b)  0.00000
   9 P4/mmm[1/2,1/2,0]M1+(a)[O1:f:dsp]B2u(a)  0.00000
  10 P4/mmm[1/2,1/2,0]M4+(a)[O1:f:dsp]B3u(a)  0.00000
  11 P4/mmm[0,1/2,0]X1+(a;a)[O1:f:dsp]B2u(a)  0.00000
  12 P4/mmm[0,1/2,0]X2+(a;a)[O1:f:dsp]B3u(a)  0.00000
  13 P4/mmm[1/4,1/4,1/2]S1(a,0;b,0)[Ni1:a:dsp]Eu(a)  0.00000
  14 P4/mmm[1/4,1/4,1/2]S1(a,0;b,0)[Ni1:a:dsp]Eu(b)  0.00000

loop_
_iso_displacivemodenorm_ID
_iso_displacivemodenorm_value
   1  0.07620
   2  0.07620
   3  0.03188
   4  0.03188
   5  0.01594
   6  0.01594
   7  0.01594
   8  0.01594
   9  0.01594
  10  0.01594
  11  0.01594
  12  0.01594
  13  0.04509
  14  0.04509

loop_
_iso_deltacoordinate_ID
_iso_deltacoordinate_label
_iso_deltacoordinate_value
   1 Pr1_1_dx   0.00000
   2 Pr1_1_dy   0.00000
   3 Pr1_2_dx   0.00000
   4 Pr1_2_dz   0.00000
   5 O1_1_dy   0.00000
   6 O1_1_dz   0.00000
   7 O1_2_dy   0.00000
   8 O1_2_dz   0.00000
   9 O1_3_dy   0.00000
  10 O1_3_dz   0.00000
  11 O1_4_dy   0.00000
  12 O1_4_dz   0.00000
  13 Ni1_3_dy   0.00000
  14 Ni1_3_dz   0.00000

loop_
_iso_coordinate_label
_iso_coordinate_formula
Pr1_1_x                 "3/4"
Pr1_1_y                 "1/4"
Pr1_1_z                 "0"
Pr1_2_x                 "3/4"
Pr1_2_y                 "0"
Pr1_2_z                 "3/4"
O1_1_x                  "0"
O1_1_y                  "7/8"
O1_1_z                  "7/8"
O1_2_x                  "0"
O1_2_y                  "7/8"
O1_2_z                  "3/8"
O1_3_x                  "0"
O1_3_y                  "3/8"
O1_3_z                  "7/8"
O1_4_x                  "0"
O1_4_y                  "3/8"
O1_4_z                  "3/8"
Ni1_1_x                 "0"
Ni1_1_y                 "0"
Ni1_1_z                 "0"
Ni1_2_x                 "1/2"
Ni1_2_y                 "1/2"
Ni1_2_z                 "0"
Ni1_3_x                 "0"
Ni1_3_y                 "3/4"
Ni1_3_z                 "3/4"
Ni1_4_x                 "1/2"
Ni1_4_y                 "0"
Ni1_4_z                 "1/2"
Ni1_5_x                 "0"
Ni1_5_y                 "1/2"
Ni1_5_z                 "1/2"

# matrix conversion: deltacoords(lattice units) = matrix.(modeamplitudes*modenormfactors)
# Square matrix with _iso_displacivemode_number rows and columns

loop_
_iso_displacivemodematrix_row
_iso_displacivemodematrix_col
_iso_displacivemodematrix_value
    1    2   1.00000
    2    3   1.00000
    2    4   1.00000
    3    1   1.00000
    4    3  -1.00000
    4    4   1.00000
    5    5  -1.00000
    5    6   1.00000
    5    7  -1.00000
    5    8  -1.00000
    5    9  -1.00000
    5   10  -1.00000
    5   11  -1.00000
    5   12  -1.00000
    6    5   1.00000
    6    6  -1.00000
    6    7  -1.00000
    6    8  -1.00000
    6    9  -1.00000
    6   10   1.00000
    6   11  -1.00000
    6   12   1.00000
    7    5  -1.00000
    7    6  -1.00000
    7    7  -1.00000
    7    8   1.00000
    7    9  -1.00000
    7   10  -1.00000
    7   11   1.00000
    7   12   1.00000
    8    5   1.00000
    8    6   1.00000
    8    7  -1.00000
    8    8   1.00000
    8    9  -1.00000
    8   10   1.00000
    8   11   1.00000
    8   12  -1.00000
    9    5   1.00000
    9    6   1.00000
    9    7   1.00000
    9    8  -1.00000
    9    9  -1.00000
    9   10  -1.00000
    9   11   1.00000
    9   12   1.00000
   10    5  -1.00000
   10    6  -1.00000
   10    7   1.00000
   10    8  -1.00000
   10    9  -1.00000
   10   10   1.00000
   10   11   1.00000
   10   12  -1.00000
   11    5   1.00000
   11    6  -1.00000
   11    7   1.00000
   11    8   1.00000
   11    9  -1.00000
   11   10  -1.00000
   11   11  -1.00000
   11   12  -1.00000
   12    5  -1.00000
   12    6   1.00000
   12    7   1.00000
   12    8   1.00000
   12    9  -1.00000
   12   10   1.00000
   12   11  -1.00000
   12   12   1.00000
   13   13  -1.00000
   14   14  -1.00000

_iso_magneticmode_number    0


_iso_rotationalmode_number    0


_iso_occupancymode_number    0

_iso_strainmode_number    3

loop_
_iso_strainmode_ID
_iso_strainmode_label
_iso_strainmode_value
   1 P4/mmm[0,0,0]GM1+(a)strain_1(a)  0.00000
   2 P4/mmm[0,0,0]GM1+(a)strain_2(a)  0.00000
   3 P4/mmm[0,0,0]GM4+(a)strain(a)  0.00000

loop_
_iso_strainmodenorm_ID
_iso_strainmodenorm_value
   1  0.70711
   2  1.00000
   3  1.41421

loop_
_iso_strain_ID
_iso_strain_label
_iso_strain_value
   1 E_1   0.00000
   2 E_2   0.00000
   3 E_3   0.00000
   4 E_4   0.00000
   5 E_5   0.00000
   6 E_6   0.00000

# matrix conversion: strains(parent) = matrix * modeamplitudes
# Rectangular matrix with 6 rows and _iso_strainmode_number columns

loop_
_iso_strainmodematrix_row
_iso_strainmodematrix_col
_iso_strainmodematrix_value
    1    1   1.00000
    2    1   1.00000
    3    2   1.00000
    6    3   1.00000

_iso_parentcell_length_a     3.92080
_iso_parentcell_length_b     3.92080
_iso_parentcell_length_c     3.28100
_iso_parentcell_angle_alpha  90.00000
_iso_parentcell_angle_beta   90.00000
_iso_parentcell_angle_gamma  90.00000
_iso_parentcell_volume       50.43774
_iso_parent-to-child.transform_Pp_abc 2c,-2a-2b,2a-2b;0,2,-1

# end of structure file
# end of cif
